Version 4
SHEET 1 1204 680
WIRE 32 -464 32 -512
WIRE 224 -464 32 -464
WIRE 32 -448 32 -464
WIRE -288 -416 -320 -416
WIRE -32 -416 -32 -512
WIRE -32 -416 -64 -416
WIRE 320 -416 288 -416
WIRE -320 -400 -320 -416
WIRE 416 -400 416 -512
WIRE 560 -384 464 -384
WIRE 608 -384 560 -384
WIRE 32 -368 32 -384
WIRE 224 -368 32 -368
WIRE -288 -352 -320 -352
WIRE -640 -336 -640 -368
WIRE 512 -336 464 -336
WIRE -320 -320 -320 -352
WIRE 32 -320 32 -368
WIRE 32 -320 -320 -320
WIRE -288 -288 -384 -288
WIRE 32 -288 32 -320
WIRE 32 -288 -64 -288
WIRE 320 -288 320 -416
WIRE 416 -288 416 -320
WIRE 416 -288 320 -288
WIRE 512 -288 512 -336
WIRE 560 -256 560 -384
WIRE 560 -256 -320 -256
WIRE -768 -224 -768 -288
WIRE -640 -224 -640 -256
WIRE -320 -224 -320 -256
WIRE -288 -224 -320 -224
WIRE 32 -224 32 -288
WIRE 320 -224 320 -288
WIRE -768 -96 -768 -144
WIRE -640 -96 -640 -144
WIRE 32 -96 32 -144
WIRE 320 -96 320 -144
FLAG -768 -96 0
FLAG -768 -288 V+
FLAG -320 -400 0
FLAG -640 -368 !SYS_RESET
FLAG -32 -512 V+
FLAG 608 -384 !SYS_RESET
FLAG 32 -512 V+
FLAG 32 -96 0
FLAG -384 -288 ENABLE
FLAG -640 -96 0
FLAG 320 -96 0
FLAG 512 -288 0
FLAG 416 -512 V+
SYMBOL Misc\\NE555 -176 -320 R0
SYMATTR InstName U1
SYMBOL voltage -768 -240 R0
WINDOW 123 0 0 Left 2
WINDOW 39 0 0 Left 2
SYMATTR InstName V1
SYMATTR Value PULSE(0 3 0 1m)
SYMBOL res 16 -240 R0
SYMATTR InstName R1
SYMATTR Value 100K
SYMBOL cap 16 -448 R0
SYMATTR InstName C1
SYMATTR Value 100µ
SYMBOL res 304 -128 M180
WINDOW 0 36 76 Left 2
WINDOW 3 36 40 Left 2
SYMATTR InstName R7
SYMATTR Value 750
SYMBOL voltage -640 -240 R0
WINDOW 123 0 0 Left 2
WINDOW 39 0 0 Left 2
SYMATTR InstName V2
SYMATTR Value PULSE(0 3 1 1m 1m 30)
SYMBOL voltage -640 -352 R0
WINDOW 123 0 0 Left 2
WINDOW 39 0 0 Left 2
SYMATTR InstName V3
SYMATTR Value PULSE(0 -3 3 1m 1m 10)
SYMBOL sw 416 -304 R180
SYMATTR InstName S1
SYMATTR Value TBD62783
SYMBOL pnp 288 -368 R180
SYMATTR InstName Q1
SYMATTR Value 2N3906
TEXT -224 -136 Left 2 !.tran 60s startup
TEXT -312 -104 Left 2 ;2019-02-07..08 Peter Lapets
TEXT -280 -488 Left 2 ;TLC555
TEXT 360 -136 Left 2 ;Low value
TEXT 448 -416 Left 2 !.model TBD62783 SW(Ron=.1 Vt=0.1)
